xflr5 v6.61

 Calculated polar for: NACA 0009

 1 1 Reynolds number fixed          Mach number fixed         

 xtrf =   1.000 (top)        1.000 (bottom)
 Mach =   0.000     Re =     2.700 e 6     Ncrit =   9.000

  alpha     CL        CD       CDp       Cm    Top Xtr Bot Xtr   Cpmin    Chinge    XCp    
 ------- -------- --------- --------- -------- ------- ------- -------- --------- ---------
 -10.000  -1.0870   0.01309   0.00858  -0.0035  1.0000  0.0068  -8.7951   0.0000   0.0000   0.0000   0.2375
  -9.800  -1.0660   0.01296   0.00846  -0.0034  1.0000  0.0068  -8.4606   0.0000   0.0000   0.0000   0.2379
  -9.600  -1.0450   0.01283   0.00834  -0.0032  1.0000  0.0068  -8.1329   0.0000   0.0000   0.0000   0.2382
  -9.400  -1.0241   0.01269   0.00820  -0.0031  1.0000  0.0069  -7.8126   0.0000   0.0000   0.0000   0.2385
  -9.200  -1.0050   0.01222   0.00768  -0.0026  1.0000  0.0070  -7.5388   0.0000   0.0000   0.0000   0.2392
  -9.000  -0.9871   0.01157   0.00692  -0.0020  1.0000  0.0073  -7.2982   0.0000   0.0000   0.0000   0.2400
  -8.800  -0.9679   0.01111   0.00639  -0.0015  1.0000  0.0076  -7.0394   0.0000   0.0000   0.0000   0.2407
  -8.600  -0.9483   0.01074   0.00596  -0.0010  1.0000  0.0077  -6.7732   0.0000   0.0000   0.0000   0.2414
  -8.400  -0.9285   0.01040   0.00557  -0.0006  1.0000  0.0080  -6.5121   0.0000   0.0000   0.0000   0.2420
  -8.200  -0.9087   0.01010   0.00522  -0.0002  1.0000  0.0083  -6.2531   0.0000   0.0000   0.0000   0.2427
  -8.000  -0.8888   0.00981   0.00491   0.0003  1.0000  0.0087  -5.9978   0.0000   0.0000   0.0000   0.2434
  -7.800  -0.8690   0.00955   0.00463   0.0008  1.0000  0.0092  -5.7461   0.0000   0.0000   0.0000   0.2442
  -7.600  -0.8494   0.00931   0.00438   0.0013  1.0000  0.0099  -5.4969   0.0000   0.0000   0.0000   0.2450
  -7.400  -0.8298   0.00908   0.00417   0.0018  1.0000  0.0109  -5.2493   0.0000   0.0000   0.0000   0.2459
  -7.200  -0.8100   0.00892   0.00401   0.0023  1.0000  0.0116  -5.0005   0.0000   0.0000   0.0000   0.2467
  -7.000  -0.7901   0.00879   0.00389   0.0027  1.0000  0.0120  -4.7532   0.0000   0.0000   0.0000   0.2476
  -6.600  -0.7510   0.00849   0.00357   0.0038  1.0000  0.0128  -4.2842   0.0000   0.0000   0.0000   0.2496
  -6.400  -0.7322   0.00827   0.00333   0.0045  1.0000  0.0145  -4.0680   0.0000   0.0000   0.0000   0.2509
  -6.200  -0.7111   0.00807   0.00315   0.0048  0.9998  0.0162  -3.8447   0.0000   0.0000   0.0000   0.2516
  -6.000  -0.6854   0.00789   0.00300   0.0039  0.9991  0.0178  -3.6400   0.0000   0.0000   0.0000   0.2508
  -5.800  -0.6595   0.00776   0.00287   0.0031  0.9982  0.0187  -3.4364   0.0000   0.0000   0.0000   0.2499
  -5.600  -0.6336   0.00759   0.00270   0.0022  0.9972  0.0209  -3.2438   0.0000   0.0000   0.0000   0.2489
  -5.400  -0.6076   0.00739   0.00254   0.0014  0.9961  0.0247  -3.0537   0.0000   0.0000   0.0000   0.2478
  -5.200  -0.5813   0.00725   0.00240   0.0004  0.9951  0.0267  -2.8672   0.0000   0.0000   0.0000   0.2464
  -5.000  -0.5547   0.00708   0.00226  -0.0006  0.9941  0.0312  -2.6813   0.0000   0.0000   0.0000   0.2448
  -4.800  -0.5280   0.00692   0.00214  -0.0016  0.9932  0.0356  -2.4976   0.0000   0.0000   0.0000   0.2429
  -4.600  -0.5035   0.00677   0.00201  -0.0021  0.9907  0.0413  -2.3268   0.0000   0.0000   0.0000   0.2418
  -4.400  -0.4797   0.00661   0.00190  -0.0025  0.9870  0.0469  -2.1615   0.0000   0.0000   0.0000   0.2410
  -4.200  -0.4548   0.00643   0.00178  -0.0031  0.9833  0.0578  -1.9973   0.0000   0.0000   0.0000   0.2395
  -4.000  -0.4302   0.00626   0.00167  -0.0036  0.9792  0.0693  -1.8379   0.0000   0.0000   0.0000   0.2380
  -3.800  -0.4085   0.00611   0.00157  -0.0034  0.9720  0.0813  -1.6916   0.0000   0.0000   0.0000   0.2380
  -3.600  -0.3865   0.00595   0.00145  -0.0034  0.9640  0.0965  -1.5610   0.0000   0.0000   0.0000   0.2379
  -3.400  -0.3653   0.00580   0.00135  -0.0031  0.9548  0.1131  -1.4505   0.0000   0.0000   0.0000   0.2382
  -3.200  -0.3446   0.00564   0.00126  -0.0027  0.9436  0.1336  -1.3435   0.0000   0.0000   0.0000   0.2390
  -3.000  -0.3236   0.00547   0.00116  -0.0024  0.9312  0.1590  -1.2380   0.0000   0.0000   0.0000   0.2395
  -2.800  -0.3026   0.00533   0.00108  -0.0021  0.9179  0.1833  -1.1349   0.0000   0.0000   0.0000   0.2401
  -2.400  -0.2603   0.00508   0.00092  -0.0015  0.8851  0.2347  -0.9407   0.0000   0.0000   0.0000   0.2413
  -2.200  -0.2390   0.00495   0.00085  -0.0013  0.8671  0.2658  -0.8611   0.0000   0.0000   0.0000   0.2417
  -2.000  -0.2176   0.00486   0.00079  -0.0011  0.8470  0.2940  -0.7831   0.0000   0.0000   0.0000   0.2423
  -1.800  -0.1964   0.00475   0.00072  -0.0009  0.8244  0.3291  -0.7096   0.0000   0.0000   0.0000   0.2429
  -1.600  -0.1747   0.00467   0.00068  -0.0007  0.8024  0.3579  -0.6461   0.0000   0.0000   0.0000   0.2432
  -1.400  -0.1530   0.00459   0.00064  -0.0006  0.7792  0.3897  -0.5841   0.0000   0.0000   0.0000   0.2435
  -1.200  -0.1312   0.00454   0.00060  -0.0005  0.7557  0.4188  -0.5316   0.0000   0.0000   0.0000   0.2436
  -1.000  -0.1094   0.00449   0.00057  -0.0004  0.7302  0.4484  -0.4826   0.0000   0.0000   0.0000   0.2439
  -0.800  -0.0876   0.00445   0.00055  -0.0003  0.7047  0.4777  -0.4391   0.0000   0.0000   0.0000   0.2440
  -0.600  -0.0657   0.00443   0.00053  -0.0002  0.6778  0.5071  -0.4010   0.0000   0.0000   0.0000   0.2442
  -0.400  -0.0438   0.00441   0.00052  -0.0001  0.6502  0.5363  -0.3675   0.0000   0.0000   0.0000   0.2443
  -0.200  -0.0219   0.00440   0.00051  -0.0001  0.6225  0.5651  -0.3379   0.0000   0.0000   0.0000   0.2443
   0.000   0.0000   0.00439   0.00052   0.0000  0.5939  0.5939  -0.3113   0.0000   0.0000   0.0000   0.1888
   0.200   0.0219   0.00440   0.00051   0.0001  0.5651  0.6225  -0.3379   0.0000   0.0000   0.0000   0.2443
   0.400   0.0438   0.00441   0.00052   0.0001  0.5363  0.6502  -0.3675   0.0000   0.0000   0.0000   0.2443
   0.600   0.0657   0.00443   0.00053   0.0002  0.5071  0.6778  -0.4010   0.0000   0.0000   0.0000   0.2442
   0.800   0.0876   0.00445   0.00055   0.0003  0.4777  0.7047  -0.4391   0.0000   0.0000   0.0000   0.2440
   1.000   0.1094   0.00449   0.00057   0.0004  0.4484  0.7302  -0.4826   0.0000   0.0000   0.0000   0.2439
   1.200   0.1312   0.00454   0.00060   0.0005  0.4188  0.7557  -0.5316   0.0000   0.0000   0.0000   0.2436
   1.400   0.1530   0.00459   0.00064   0.0006  0.3897  0.7792  -0.5841   0.0000   0.0000   0.0000   0.2435
   1.600   0.1747   0.00467   0.00068   0.0007  0.3579  0.8024  -0.6462   0.0000   0.0000   0.0000   0.2432
   1.800   0.1964   0.00475   0.00072   0.0009  0.3291  0.8244  -0.7096   0.0000   0.0000   0.0000   0.2429
   2.000   0.2176   0.00486   0.00079   0.0011  0.2941  0.8470  -0.7831   0.0000   0.0000   0.0000   0.2423
   2.200   0.2390   0.00495   0.00085   0.0013  0.2658  0.8671  -0.8611   0.0000   0.0000   0.0000   0.2417
   2.400   0.2603   0.00508   0.00092   0.0015  0.2347  0.8850  -0.9407   0.0000   0.0000   0.0000   0.2413
   2.600   0.2817   0.00521   0.00100   0.0017  0.2077  0.9011  -1.0343   0.0000   0.0000   0.0000   0.2409
   2.800   0.3026   0.00533   0.00108   0.0021  0.1833  0.9179  -1.1349   0.0000   0.0000   0.0000   0.2401
   3.000   0.3236   0.00547   0.00116   0.0024  0.1590  0.9312  -1.2380   0.0000   0.0000   0.0000   0.2395
   3.200   0.3446   0.00564   0.00126   0.0027  0.1336  0.9436  -1.3435   0.0000   0.0000   0.0000   0.2390
   3.400   0.3653   0.00580   0.00135   0.0031  0.1131  0.9548  -1.4505   0.0000   0.0000   0.0000   0.2382
   3.600   0.3865   0.00595   0.00145   0.0033  0.0965  0.9640  -1.5611   0.0000   0.0000   0.0000   0.2379
   3.800   0.4085   0.00611   0.00157   0.0034  0.0813  0.9720  -1.6916   0.0000   0.0000   0.0000   0.2380
   4.000   0.4302   0.00626   0.00167   0.0036  0.0693  0.9792  -1.8380   0.0000   0.0000   0.0000   0.2380
   4.200   0.4548   0.00643   0.00178   0.0031  0.0578  0.9833  -1.9973   0.0000   0.0000   0.0000   0.2395
   4.400   0.4797   0.00661   0.00190   0.0025  0.0469  0.9870  -2.1615   0.0000   0.0000   0.0000   0.2410
   4.600   0.5036   0.00677   0.00201   0.0021  0.0413  0.9907  -2.3268   0.0000   0.0000   0.0000   0.2418
   4.800   0.5281   0.00692   0.00214   0.0016  0.0356  0.9932  -2.4977   0.0000   0.0000   0.0000   0.2429
   5.000   0.5548   0.00708   0.00226   0.0006  0.0312  0.9941  -2.6814   0.0000   0.0000   0.0000   0.2448
   5.200   0.5813   0.00725   0.00240  -0.0004  0.0267  0.9951  -2.8673   0.0000   0.0000   0.0000   0.2464
   5.400   0.6077   0.00739   0.00254  -0.0014  0.0247  0.9961  -3.0538   0.0000   0.0000   0.0000   0.2478
   5.600   0.6336   0.00759   0.00270  -0.0022  0.0209  0.9972  -3.2439   0.0000   0.0000   0.0000   0.2489
   5.800   0.6595   0.00776   0.00287  -0.0031  0.0187  0.9983  -3.4365   0.0000   0.0000   0.0000   0.2499
   6.000   0.6854   0.00789   0.00300  -0.0039  0.0178  0.9991  -3.6402   0.0000   0.0000   0.0000   0.2508
   6.200   0.7111   0.00807   0.00315  -0.0048  0.0162  0.9998  -3.8449   0.0000   0.0000   0.0000   0.2516
   6.400   0.7321   0.00827   0.00332  -0.0045  0.0145  1.0000  -4.0674   0.0000   0.0000   0.0000   0.2509
   6.600   0.7510   0.00849   0.00357  -0.0038  0.0128  1.0000  -4.2837   0.0000   0.0000   0.0000   0.2496
   7.000   0.7900   0.00879   0.00389  -0.0027  0.0120  1.0000  -4.7527   0.0000   0.0000   0.0000   0.2476
   7.200   0.8099   0.00892   0.00401  -0.0022  0.0116  1.0000  -5.0001   0.0000   0.0000   0.0000   0.2467
   7.400   0.8297   0.00908   0.00417  -0.0018  0.0109  1.0000  -5.2490   0.0000   0.0000   0.0000   0.2459
   7.600   0.8494   0.00931   0.00438  -0.0013  0.0099  1.0000  -5.4965   0.0000   0.0000   0.0000   0.2450
   7.800   0.8690   0.00955   0.00463  -0.0008  0.0092  1.0000  -5.7458   0.0000   0.0000   0.0000   0.2442
   8.000   0.8888   0.00981   0.00491  -0.0003  0.0087  1.0000  -5.9976   0.0000   0.0000   0.0000   0.2434
   8.200   0.9087   0.01010   0.00522   0.0002  0.0083  1.0000  -6.2531   0.0000   0.0000   0.0000   0.2427
   8.400   0.9285   0.01040   0.00557   0.0006  0.0080  1.0000  -6.5121   0.0000   0.0000   0.0000   0.2420
   8.600   0.9483   0.01074   0.00596   0.0010  0.0077  1.0000  -6.7732   0.0000   0.0000   0.0000   0.2414
   8.800   0.9679   0.01111   0.00639   0.0015  0.0076  1.0000  -7.0396   0.0000   0.0000   0.0000   0.2407
   9.000   0.9871   0.01157   0.00692   0.0020  0.0073  1.0000  -7.2984   0.0000   0.0000   0.0000   0.2400
   9.200   1.0051   0.01223   0.00768   0.0026  0.0070  1.0000  -7.5391   0.0000   0.0000   0.0000   0.2392
   9.400   1.0242   0.01269   0.00820   0.0031  0.0069  1.0000  -7.8130   0.0000   0.0000   0.0000   0.2385
   9.600   1.0451   0.01283   0.00834   0.0032  0.0068  1.0000  -8.1334   0.0000   0.0000   0.0000   0.2382
   9.800   1.0661   0.01296   0.00846   0.0033  0.0068  1.0000  -8.4612   0.0000   0.0000   0.0000   0.2379
  10.000   1.0870   0.01309   0.00858   0.0035  0.0068  1.0000  -8.7958   0.0000   0.0000   0.0000   0.2376
  10.200   1.1080   0.01321   0.00869   0.0036  0.0067  1.0000  -9.1364   0.0000   0.0000   0.0000   0.2372
  10.400   1.1289   0.01334   0.00881   0.0037  0.0067  1.0000  -9.4821   0.0000   0.0000   0.0000   0.2369
  10.600   1.1499   0.01346   0.00892   0.0038  0.0066  1.0000  -9.8328   0.0000   0.0000   0.0000   0.2366
  10.800   1.1706   0.01362   0.00907   0.0040  0.0064  1.0000  -10.1847   0.0000   0.0000   0.0000   0.2362
  11.000   1.1911   0.01380   0.00924   0.0041  0.0062  1.0000  -10.5371   0.0000   0.0000   0.0000   0.2359
  11.200   1.2113   0.01401   0.00944   0.0043  0.0058  1.0000  -10.8859   0.0000   0.0000   0.0000   0.2355
  11.400   1.2309   0.01431   0.00972   0.0046  0.0052  1.0000  -11.2150   0.0000   0.0000   0.0000   0.2350
  11.600   1.2493   0.01480   0.01021   0.0051  0.0046  1.0000  -11.5027   0.0000   0.0000   0.0000   0.2344
  11.800   1.2666   0.01544   0.01093   0.0057  0.0043  1.0000  -11.7597   0.0000   0.0000   0.0000   0.2337
  12.000   1.2836   0.01610   0.01169   0.0063  0.0041  1.0000  -12.0249   0.0000   0.0000   0.0000   0.2329
  12.200   1.3002   0.01679   0.01246   0.0070  0.0040  1.0000  -12.2973   0.0000   0.0000   0.0000   0.2321
  12.400   1.3163   0.01751   0.01328   0.0077  0.0040  1.0000  -12.5747   0.0000   0.0000   0.0000   0.2314
  12.600   1.3318   0.01827   0.01414   0.0085  0.0039  1.0000  -12.8499   0.0000   0.0000   0.0000   0.2305
  12.800   1.3466   0.01909   0.01506   0.0093  0.0039  1.0000  -13.1216   0.0000   0.0000   0.0000   0.2297
  13.000   1.3604   0.01999   0.01607   0.0102  0.0038  1.0000  -13.3857   0.0000   0.0000   0.0000   0.2288
  13.200   1.3731   0.02098   0.01716   0.0112  0.0037  1.0000  -13.6397   0.0000   0.0000   0.0000   0.2278
  13.400   1.3847   0.02203   0.01834   0.0123  0.0037  1.0000  -13.8847   0.0000   0.0000   0.0000   0.2267
  13.600   1.3953   0.02312   0.01954   0.0135  0.0036  1.0000  -14.1244   0.0000   0.0000   0.0000   0.2257
  13.800   1.4047   0.02427   0.02080   0.0148  0.0036  1.0000  -14.3548   0.0000   0.0000   0.0000   0.2245
  14.000   1.4125   0.02549   0.02214   0.0161  0.0036  1.0000  -14.5710   0.0000   0.0000   0.0000   0.2233
  14.200   1.4183   0.02679   0.02357   0.0176  0.0036  1.0000  -14.7696   0.0000   0.0000   0.0000   0.2219
  14.400   1.4204   0.02813   0.02502   0.0196  0.0036  1.0000  -14.9353   0.0000   0.0000   0.0000   0.2202
  14.600   1.4181   0.02955   0.02655   0.0220  0.0036  1.0000  -15.0621   0.0000   0.0000   0.0000   0.2182
  14.800   1.4141   0.03121   0.02833   0.0239  0.0036  1.0000  -15.1680   0.0000   0.0000   0.0000   0.2164
  15.000   1.4087   0.03321   0.03045   0.0252  0.0036  1.0000  -15.2525   0.0000   0.0000   0.0000   0.2151
  15.200   1.4018   0.03565   0.03301   0.0257  0.0036  1.0000  -15.3127   0.0000   0.0000   0.0000   0.2143
  15.400   1.3932   0.03868   0.03616   0.0251  0.0036  1.0000  -15.3433   0.0000   0.0000   0.0000   0.2141
  15.600   1.3828   0.04251   0.04012   0.0233  0.0036  1.0000  -15.3373   0.0000   0.0000   0.0000   0.2148
  15.800   1.3702   0.04732   0.04506   0.0201  0.0036  1.0000  -15.2854   0.0000   0.0000   0.0000   0.2165
  16.000   1.3541   0.05331   0.05117   0.0158  0.0036  1.0000  -15.1666   0.0000   0.0000   0.0000   0.2191
  16.200   1.3337   0.06068   0.05868   0.0103  0.0036  1.0000  -14.9657   0.0000   0.0000   0.0000   0.2225
  16.400   1.3076   0.06942   0.06755   0.0043  0.0037  1.0000  -14.6625   0.0000   0.0000   0.0000   0.2265
  16.600   1.2746   0.07922   0.07746  -0.0016  0.0037  1.0000  -14.2443   0.0000   0.0000   0.0000   0.2307
  16.800   1.2359   0.09008   0.08843  -0.0076  0.0037  1.0000  -13.7165   0.0000   0.0000   0.0000   0.2353
  17.000   1.1939   0.10133   0.09977  -0.0134  0.0037  1.0000  -13.1140   0.0000   0.0000   0.0000   0.2402
  17.200   1.1485   0.11330   0.11183  -0.0195  0.0038  1.0000  -12.4200   0.0000   0.0000   0.0000   0.2458
  17.400   1.1005   0.12646   0.12507  -0.0263  0.0038  1.0000  -11.6130   0.0000   0.0000   0.0000   0.2527
  17.600   1.0559   0.13936   0.13806  -0.0329  0.0039  1.0000  -10.7949   0.0000   0.0000   0.0000   0.2601
  17.800   0.9897   0.15880   0.15762  -0.0429  0.0041  1.0000  -9.3515   0.0000   0.0000   0.0000   0.2727


